144
0.400000
H 3.343317 -3.477510 0.000000 
O 2.958087 -4.400331 0.000000 
H 0.160261 -0.361934 0.000000 
O 0.778459 0.424089 0.000000 
H 1.752009 0.832300 0.000000 
O 0.805389 1.154653 0.000000 
H 1.117021 -0.755015 0.000000 
O 0.523651 -1.559945 0.000000 
H 2.884247 -0.501253 0.000000 
O 2.123922 0.148291 0.000000 
H -1.110051 3.033526 0.000000 
O -0.166801 3.365607 0.000000 
H 4.087133 3.453891 0.000000 
O 4.414926 4.398640 0.000000 
H -1.156465 4.054680 0.000000 
O -1.158987 3.054684 0.000000 
H -2.834867 2.895116 0.000000 
O -1.889641 3.221533 0.000000 
H -4.532167 2.772599 0.000000 
O -4.228257 3.725300 0.000000 
H -1.989597 3.487482 0.000000 
O -1.167708 4.057131 0.000000 
H 0.589755 3.263811 0.000000 
O 0.815076 4.238096 0.000000 
H -2.087102 4.464466 0.000000 
O -2.723961 3.693486 0.000000 
H 1.621953 1.813773 0.000000 
O 0.711844 2.228143 0.000000 
H 0.031162 0.622601 0.000000 
O 0.395993 1.553675 0.000000 
H -1.728837 0.440952 0.000000 
O -1.377457 -0.495281 0.000000 
H -2.622557 0.878117 0.000000 
O -1.651691 0.638493 0.000000 
H -1.453301 -1.557374 0.000000 
O -2.126565 -2.296776 0.000000 
H 3.002273 -1.493883 0.000000 
O 2.078871 -1.877719 0.000000 
H 3.721893 0.103208 0.000000 
O 2.904177 0.678829 0.000000 
H 2.320712 -3.111228 0.000000 
O 1.451602 -2.616609 0.000000 
H -0.211787 2.674049 0.000000 
O 0.209924 1.767319 0.000000 
H 3.983306 -1.831531 0.000000 
O 3.593284 -2.752336 0.000000 
H -2.920614 3.904230 0.000000 
O -3.316374 2.985876 0.000000 
H 5.605915 2.424200 0.000000 
O 6.578352 2.657365 0.000000 
H 1.918698 -0.167169 0.000000 
O 0.933098 0.001923 0.000000 
H -0.498362 -1.921007 0.000000 
O -0.316741 -0.937638 0.000000 
H -3.725731 3.322271 0.000000 
O -2.729395 3.236743 0.000000 
H -1.612196 -0.569112 0.000000 
O -1.127676 -1.443892 0.000000 
H 0.811504 1.231099 0.000000 
O 0.915180 2.225710 0.000000 
H 3.393464 2.031783 0.000000 
O 4.152604 2.682710 0.000000 
H -0.425036 4.691451 0.000000 
O 0.573467 4.636769 0.000000 
H 0.687623 2.248874 0.000000 
O 0.932936 3.218318 0.000000 
H 2.071201 -1.153830 0.000000 
O 1.316145 -0.498170 0.000000 
H -3.584577 1.268531 0.000000 
O -4.522754 1.614687 0.000000 
H -3.659335 2.297649 0.000000 
O -3.942030 3.256859 0.000000 
H -1.938890 2.475970 0.000000 
O -0.940750 2.415008 0.000000 
H -3.432499 0.298202 0.000000 
O -2.710304 -0.393488 0.000000 
H 3.841188 -0.863963 0.000000 
O 4.635204 -1.471860 0.000000 
H 1.556201 -3.793569 0.000000 
O 0.577159 -3.997226 0.000000 
H 1.414303 3.818057 0.000000 
O 1.760870 2.880032 0.000000 
H 0.517570 4.252646 0.000000 
O -0.186335 4.962940 0.000000 
H 2.573286 1.413236 0.000000 
O 3.419856 0.880958 0.000000 
H 0.973435 0.222857 0.000000 
O -0.013191 0.385856 0.000000 
H 1.506716 2.818410 0.000000 
O 0.803054 3.528945 0.000000 
H -2.752155 1.888850 0.000000 
O -3.372609 2.673092 0.000000 
H -1.014279 2.037329 0.000000 
O -0.204064 1.451196 0.000000 
H -5.776135 3.205904 0.000000 
O -6.742701 3.462322 0.000000 
H -2.411937 -1.202553 0.000000 
O -1.511473 -1.637485 0.000000 
H 3.221910 -2.476502 0.000000 
O 2.846312 -3.403285 0.000000 
H -0.912468 1.046094 0.000000 
O -0.619826 0.089872 0.000000 
H -5.706628 4.239417 0.000000 
O -6.598850 3.787819 0.000000 
H -2.534429 -0.194293 0.000000 
O -1.550587 -0.373328 0.000000 
H -4.535652 1.727437 0.000000 
O -5.296386 2.376500 0.000000 
H -0.797278 0.055315 0.000000 
O -0.011889 -0.563688 0.000000 
H 2.521006 -4.069204 0.000000 
O 1.761181 -3.419077 0.000000 
H -5.395278 2.301417 0.000000 
O -4.820701 3.119867 0.000000 
H -0.094578 1.639776 0.000000 
O 0.865836 1.918356 0.000000 
H 3.221052 3.016340 0.000000 
O 2.316710 3.443147 0.000000 
H 3.537816 1.058212 0.000000 
O 4.375388 0.511885 0.000000 
H 1.259547 -1.737434 0.000000 
O 1.387247 -0.745621 0.000000 
H 4.600502 2.623420 0.000000 
O 5.581797 2.430908 0.000000 
H -1.822113 1.458554 0.000000 
O -1.760200 2.456635 0.000000 
H 0.280984 -1.344684 0.000000 
O 0.448857 -0.358875 0.000000 
H 2.435474 2.390832 0.000000 
O 3.378219 2.057319 0.000000 
H 2.714950 0.458872 0.000000 
O 3.551335 -0.089272 0.000000 
H 2.196353 -2.133769 0.000000 
O 1.463461 -1.453424 0.000000 
H 1.359184 -2.769557 0.000000 
O 2.241610 -2.299107 0.000000 
H 2.312440 3.437189 0.000000 
O 3.281276 3.684892 0.000000 
H 0.456376 -2.324681 0.000000 
O 1.300831 -2.860308 0.000000 
H -3.394491 -0.679910 0.000000 
O -2.817370 0.136748 0.000000 
H -0.671908 -0.922627 0.000000 
O -1.635326 -0.654622 0.000000 
