200
1
H -1.918700 -3.368642 -2.836260 
O -2.079323 -3.572189 -2.320409 
C -1.365363 -3.236730 -2.935005 
C -2.311414 -3.297007 -3.253367 
H 3.348565 -3.024960 1.755612 
O 2.780737 -3.099420 1.828827 
C 3.666338 -3.444075 1.517503 
C 3.598619 -2.531385 1.920506 
H 2.076800 0.676317 -1.726374 
O 2.224977 1.154958 -2.013217 
C 1.520854 0.527233 -1.681295 
C 2.484568 0.346759 -1.484609 
H -0.629650 3.688174 -1.251802 
O -1.084555 4.041366 -1.211180 
C -0.095245 3.897311 -1.188509 
C -0.709151 3.125844 -1.355718 
H -0.379924 -1.507130 1.704205 
O -0.029775 -1.891830 1.453737 
C -0.938234 -1.632302 1.781377 
C -0.171763 -0.997257 1.877503 
H 0.134800 -3.412260 1.289091 
O 0.410795 -2.921676 1.417496 
C -0.437030 -3.409454 1.209492 
C 0.430635 -3.905649 1.240284 
H -2.487727 -3.222700 -1.236365 
O -2.361848 -3.785669 -1.212853 
C -2.110770 -2.833995 -1.036002 
C -2.990564 -3.048435 -1.460240 
H 2.685386 -2.664837 0.616453 
O 2.189658 -2.626029 0.909850 
C 2.947326 -3.176083 0.558596 
C 2.919172 -2.192399 0.380912 
H -2.725762 4.139703 -2.614277 
O -2.562540 4.515106 -2.207135 
C -3.061439 4.314537 -3.050267 
C -2.553307 3.589467 -2.585430 
H -2.769296 -3.750589 -0.159336 
O -2.766786 -4.307474 -0.311671 
C -2.281353 -3.497363 0.017074 
C -3.259750 -3.446930 -0.183411 
H -3.490250 -4.477633 0.897182 
O -3.357488 -4.870078 0.495068 
C -3.230099 -3.962223 0.894533 
C -3.883163 -4.600599 1.301944 
H 1.545864 -2.882738 3.104347 
O 1.428015 -2.506240 2.682809 
C 2.088601 -2.947240 3.290382 
C 1.120975 -3.194735 3.339848 
H 2.628073 0.228433 -4.360667 
O 2.559225 0.632901 -3.954466 
C 2.618119 0.375328 -4.918928 
C 2.706874 -0.322930 -4.208606 
H 4.495210 -4.294466 -0.610779 
O 5.061052 -4.366279 -0.521345 
C 4.257869 -3.771372 -0.552684 
C 4.166708 -4.745747 -0.758309 
H 3.135126 2.420229 -2.636161 
O 2.778758 1.971310 -2.705490 
C 3.202552 2.803791 -3.062386 
C 3.424069 2.485587 -2.140607 
H 1.441213 -3.534009 2.127456 
O 1.435450 -3.064962 1.790864 
C 0.956611 -3.837241 2.208354 
C 1.931579 -3.699825 2.383151 
H -3.771568 -4.300435 -1.537605 
O -3.250909 -4.468415 -1.353130 
C -3.898986 -3.738225 -1.569507 
C -4.164808 -4.694665 -1.690177 
H 1.175961 1.937322 -1.088790 
O 1.471846 1.806692 -1.567038 
C 1.454613 2.015193 -0.589168 
C 0.601423 1.990081 -1.110165 
H 0.368066 -0.702111 1.036458 
O 0.720600 -1.157584 0.996490 
C 0.538129 -0.229553 1.321239 
C -0.154532 -0.719197 0.791645 
H 0.519826 -2.596186 0.266390 
O 0.818669 -2.305632 0.665895 
C 0.465021 -2.380777 -0.266460 
C 0.275788 -3.102148 0.399734 
H 3.783602 1.153696 -1.530989 
O 3.359128 1.374707 -1.853960 
C 3.659266 0.788543 -1.101412 
C 4.332411 1.297837 -1.637597 
H 2.710752 1.019424 -0.370409 
O 2.635345 1.345273 -0.841015 
C 3.209269 1.042580 -0.080102 
C 2.287643 0.670420 -0.190111 
H 0.644424 2.059052 -3.167346 
O 1.168337 1.944645 -3.381260 
C 0.589455 2.251639 -2.625846 
C 0.175479 1.980873 -3.494932 
H -2.266804 3.603954 -1.449348 
O -2.222493 4.127212 -1.209410 
C -1.794210 3.333305 -1.641018 
C -2.783710 3.351343 -1.497615 
H 2.549334 -1.709295 2.104639 
O 2.184668 -2.151485 2.035213 
C 2.815077 -1.631068 2.611190 
C 2.648256 -1.345332 1.667513 
H -1.014871 -3.877548 -0.304327 
O -1.413743 -4.184975 -0.586680 
C -0.523999 -3.728842 -0.569402 
C -1.106870 -3.718829 0.243101 
H -1.116403 3.937969 -2.616670 
O -1.572085 4.150203 -2.332691 
C -0.954237 4.172554 -3.118671 
C -0.822888 3.491148 -2.398647 
H -2.646910 3.177240 -0.142891 
O -2.852591 3.641672 -0.417356 
C -2.545770 3.198847 0.425121 
C -2.542368 2.691200 -0.436438 
H 1.794276 -2.158288 -0.641166 
O 1.614857 -2.158506 -0.092402 
C 2.129225 -2.586497 -0.835537 
C 1.638746 -1.729862 -0.995559 
H 1.107389 -1.503201 2.036307 
O 1.053455 -2.004452 1.754931 
C 1.561473 -1.161800 1.933414 
C 0.707240 -1.343352 2.420575 
H 1.931805 -1.128888 0.704490 
O 1.711283 -1.627902 0.893402 
C 2.181962 -1.102170 0.184836 
C 1.902170 -0.656591 1.035233 
H -0.888975 -3.692926 -1.783174 
O -1.349379 -4.020049 -1.663375 
C -0.512167 -3.861578 -2.186790 
C -0.805378 -3.197151 -1.499356 
H 1.548130 1.576444 4.363760 
O 1.861178 1.487328 4.840617 
C 1.811221 1.694828 3.863658 
C 0.971991 1.547175 4.387004 
H 1.630172 0.713868 -3.177285 
O 1.929610 1.198094 -3.081393 
C 1.155334 0.728284 -3.505391 
C 1.805573 0.215226 -2.945070 
H 2.236766 -4.421610 1.129419 
O 2.148979 -3.861956 1.240833 
C 2.322450 -4.597860 0.586347 
C 2.238869 -4.805016 1.561078 
H 0.615920 0.882159 -2.343229 
O 1.026525 1.260869 -2.489229 
C 0.383866 0.897393 -1.814786 
C 0.437370 0.488216 -2.725671 
H 3.149519 0.382432 -2.728313 
O 2.908148 0.891352 -2.855097 
C 3.459218 0.322285 -2.244782 
C 3.081192 -0.066340 -3.085060 
H 2.115659 2.839369 -3.787847 
O 2.154569 2.351361 -3.481796 
C 2.361902 3.323415 -3.591897 
C 1.830507 2.843330 -4.289849 
H 2.715863 2.389043 -1.049816 
O 2.542415 2.152690 -1.547196 
C 2.344126 2.693567 -0.729801 
C 3.261050 2.320872 -0.872452 
H 1.748044 2.797935 -2.218341 
O 1.735351 2.290686 -2.493786 
C 1.292641 2.969085 -1.907456 
C 2.216140 3.134035 -2.253781 
H -1.290448 3.165756 -0.319487 
O -1.752189 3.500325 -0.409997 
C -0.806336 3.394232 -0.103228 
C -1.312819 2.602710 -0.445236 
H 1.536477 -3.692084 0.051762 
O 1.497879 -3.236732 0.404605 
C 2.041870 -3.825121 -0.193618 
C 1.069681 -4.014398 -0.055701 
H -0.086071 -2.591605 2.756184 
O 0.299249 -2.392834 2.374933 
C -0.613028 -2.357227 2.782956 
C 0.055567 -3.024752 3.110662 
H -1.906837 4.318520 0.900496 
O -2.017767 4.218457 0.342808 
C -1.526136 3.988801 1.182783 
C -2.176608 4.748300 1.175896 
H 3.076614 1.874968 -4.218032 
O 2.934484 1.654491 -3.703715 
C 3.174307 2.441402 -4.272271 
C 3.121052 1.529011 -4.678110 
H -3.904223 3.072637 -1.190106 
O -3.844158 3.581604 -0.924252 
C -4.155625 3.045969 -1.709162 
C -3.712885 2.590339 -0.936904 
H 1.225947 -0.677137 -0.325268 
O 1.117206 -1.123337 0.024609 
C 1.403472 -0.173959 -0.104747 
C 1.157162 -0.734115 -0.895668 
H -4.133572 3.219792 0.411380 
O -4.259428 3.685216 0.093773 
C -4.383990 3.145319 0.926237 
C -3.757297 2.828840 0.214129 
H 4.311831 1.528669 -3.099907 
O 3.742134 1.479973 -3.019861 
C 4.677799 1.286682 -2.724617 
C 4.515559 1.819352 -3.555244 
H 4.224372 0.528570 -3.992286 
O 3.708910 0.702293 -3.798759 
C 4.417525 -0.000250 -3.864323 
C 4.546682 0.883668 -4.313775 
