100
1
O 1.896507 0.690291 -3.097731 
N 1.938056 0.662483 -3.097105 
O 2.005066 2.837136 0.469779 
N 1.960193 2.857956 0.477049 
O -1.123096 4.892059 -1.796643 
N -1.133551 4.921185 -1.835916 
O -2.015132 -0.566878 4.846062 
N -1.993641 -0.530927 4.818755 
O -2.606217 -2.977040 -4.954066 
N -2.605328 -2.948040 -4.994787 
O -4.899179 3.800224 2.174528 
N -4.884831 3.843266 2.153515 
O -0.042473 -3.769036 -4.090877 
N -0.016826 -3.805062 -4.114209 
O -2.667656 0.107014 -4.796314 
N -2.623446 0.108469 -4.773005 
O -1.893672 0.556487 4.095729 
N -1.876441 0.593375 4.124752 
O -0.549726 -4.264716 -2.607616 
N -0.554040 -4.312394 -2.593184 
O 1.797943 2.367676 1.482620 
N 1.825016 2.362049 1.440962 
O -4.923940 -4.094333 3.280673 
N -4.942341 -4.123659 3.244599 
O 0.158291 -4.665587 -3.352432 
N 0.129868 -4.641516 -3.319073 
O -3.311466 -2.185064 4.495147 
N -3.339637 -2.223503 4.510273 
O -1.255808 1.681460 -1.601857 
N -1.224377 1.720144 -1.597893 
O -0.684053 -2.930680 -4.016623 
N -0.724674 -2.921282 -3.989026 
O 3.202181 -0.464799 -1.118133 
N 3.221597 -0.488421 -1.078573 
O -4.488425 -4.829402 2.194726 
N -4.515496 -4.836387 2.236179 
O 4.811488 3.887226 1.195279 
N 4.800306 3.869773 1.240779 
O 1.626827 1.385291 0.349373 
N 1.649787 1.357191 0.383771 
O 3.924741 -4.872434 4.446634 
N 3.920724 -4.905939 4.409738 
O -0.605663 0.799327 1.662613 
N -0.616883 0.837564 1.632413 
O -4.484162 4.527941 -3.132651 
N -4.509527 4.487032 -3.146181 
O -0.772388 4.212955 -3.967583 
N -0.756921 4.235308 -3.925617 
O -1.346464 1.802155 4.884364 
N -1.371841 1.790739 4.842823 
O -1.758629 1.551994 1.735453 
N -1.727840 1.515421 1.720811 
O -2.458782 -2.338319 -0.724763 
N -2.409371 -2.339244 -0.717172 
O -1.173686 3.406269 -2.966821 
N -1.177350 3.442130 -3.001470 
O 1.818691 0.945076 1.427868 
N 1.811245 0.993236 1.416676 
O 4.412370 -2.267328 -0.440447 
N 4.397490 -2.219614 -0.441852 
O -0.260102 4.591327 -2.692528 
N -0.289846 4.619722 -2.720971 
O -3.074570 -2.527460 0.148943 
N -3.077624 -2.532313 0.198613 
O 2.632950 1.649333 0.586571 
N 2.602940 1.610318 0.595358 
O -3.869365 4.011324 2.587854 
N -3.870330 4.040134 2.628707 
O -0.791309 -4.621446 -3.667760 
N -0.753321 -4.637689 -3.639598 
O 0.248847 -4.351348 -1.963014 
N 0.233811 -4.358496 -2.010161 
O 4.396691 -1.039920 -4.202441 
N 4.440448 -1.016993 -4.194715 
O -1.668530 1.798370 3.701520 
N -1.696328 1.781398 3.739457 
O 4.985315 4.433390 2.950329 
N 5.009309 4.453428 2.911305 
O -0.681273 1.888148 0.874270 
N -0.697066 1.894120 0.921333 
O -0.180815 4.904417 4.391871 
N -0.184387 4.869705 4.427680 
O -1.368139 4.524133 -2.875286 
N -1.325986 4.522187 -2.848465 
O -0.801475 1.846673 1.988735 
N -0.843438 1.833182 1.965132 
O -2.246501 1.395385 4.644379 
N -2.211906 1.364971 4.624931 
O 3.037146 4.353072 3.590730 
N 3.048242 4.365245 3.637939 
O -3.250210 -1.895741 -4.330306 
N -3.217213 -1.899972 -4.367633 
O 3.202950 -0.675167 3.387023 
N 3.174650 -0.716353 3.388710 
O -2.919478 -3.129926 3.940316 
N -2.875351 -3.117974 3.960563 
O -3.864262 -4.972112 3.196266 
N -3.900846 -5.000751 3.214742 
O -1.449500 0.539416 -4.915126 
N -1.494190 0.561837 -4.914816 
